 DIM-GROUP
 3  1
 PRIMVEC
 0.0000000000E+00   6.0921526139E+00   6.0921526139E+00
 6.0921526139E+00   0.0000000000E+00   6.0921526139E+00
 6.0921526139E+00   6.0921526139E+00   0.0000000000E+00
 PRIMCOORD
54 1
        3    0.0000000000E+00    0.0000000000E+00    0.0000000000E+00   -2.3748070311E-02    7.0479179007E-07    7.0459660750E-06
        9    2.0307175380E+00    2.0307175380E+00    2.0307175380E+00    2.4597238910E-03   -7.3813043695E-04   -7.5656104119E-04
        3    0.0000000000E+00    2.0307175380E+00    2.0307175380E+00   -6.3849481816E-03    6.1810707773E-04    6.2860087800E-04
        9    2.0307175380E+00    4.0614350759E+00    4.0614350759E+00    2.4362247416E-03    7.3768100907E-04    7.4453942270E-04
        3    0.0000000000E+00    4.0614350759E+00    4.0614350759E+00   -6.3822103619E-03   -6.2127173643E-04   -6.2989889392E-04
        9    2.0307175380E+00    6.0921526139E+00    6.0921526139E+00    2.3986721921E-03   -5.7010369060E-06    1.2272611862E-06
        3    2.0307175380E+00    0.0000000000E+00    2.0307175380E+00   -6.6725186842E-03    1.7596083988E-06    1.0243229110E-02
        9    4.0614350759E+00    2.0307175380E+00    4.0614350759E+00    2.5786895202E-03   -2.0454066349E-04    1.9241925949E-04
        3    2.0307175380E+00    2.0307175380E+00    4.0614350759E+00   -6.6776174529E-03    1.2935521713E-04   -1.1407857082E-04
        9    4.0614350759E+00    4.0614350759E+00    6.0921526139E+00    5.5103285881E-04    1.4016905796E-03   -9.3135500191E-06
        3    2.0307175380E+00    4.0614350759E+00    6.0921526139E+00   -6.6685164175E-03   -1.0212993387E-02   -3.5627437269E-06
        9    4.0614350759E+00    6.0921526139E+00    8.1228701519E+00    5.5154350087E-04    9.6887451821E-06   -1.4227888369E-03
        3    4.0614350759E+00    0.0000000000E+00    4.0614350759E+00   -7.0697215424E-03    2.5839962768E-06   -5.6219055507E-04
        9    6.0921526139E+00    2.0307175380E+00    6.0921526139E+00    4.3794172061E-03   -1.4384752715E-03   -1.0785579376E-06
        3    4.0614350759E+00    2.0307175380E+00    6.0921526139E+00   -7.0736873746E-03    5.7984487881E-04    1.8165934408E-06
        9    6.0921526139E+00    4.0614350759E+00    8.1228701519E+00    2.2728250914E-03    1.9813086757E-04   -1.9445650155E-04
        3    4.0614350759E+00    4.0614350759E+00    8.1228701519E+00   -6.9998681323E-03   -5.8281592429E-04    5.9214242075E-04
        9    6.0921526139E+00    6.0921526139E+00    1.0153587690E+01    4.4031854072E-03   -4.6061974209E-06    1.4510324343E-03
        3    2.0307175380E+00    2.0307175380E+00    0.0000000000E+00   -6.6755790430E-03    1.0204346837E-02   -2.1841230219E-06
        9    4.0614350759E+00    4.0614350759E+00    2.0307175380E+00    2.5728723205E-03    2.0692119733E-04   -2.1047993690E-04
        3    2.0307175380E+00    4.0614350759E+00    2.0307175380E+00   -6.6802921724E-03   -1.3273850355E-04    1.0947780163E-04
        9    4.0614350759E+00    6.0921526139E+00    4.0614350759E+00    5.4177256974E-04    6.1617625084E-06    1.4329034727E-03
        3    2.0307175380E+00    6.0921526139E+00    4.0614350759E+00   -6.6676689195E-03   -1.7582605727E-07   -1.0240843801E-02
        9    4.0614350759E+00    8.1228701519E+00    6.0921526139E+00    5.4853312629E-04   -1.4246243767E-03   -4.0222815029E-06
        3    4.0614350759E+00    2.0307175380E+00    2.0307175380E+00   -6.9979880923E-03    5.8375195649E-04    5.9410012055E-04
        9    6.0921526139E+00    4.0614350759E+00    4.0614350759E+00    2.2710217745E-03    2.0022242250E-04    1.9007962124E-04
        3    4.0614350759E+00    4.0614350759E+00    4.0614350759E+00   -7.0047144279E-03   -5.8939668303E-04   -6.0190740873E-04
        9    6.0921526139E+00    6.0921526139E+00    6.0921526139E+00    8.1962001349E-04   -2.5589702776E-07    1.6720878402E-06
        3    4.0614350759E+00    6.0921526139E+00    6.0921526139E+00    1.0136278568E-02   -8.1083987929E-06   -4.8682469851E-06
        9    6.0921526139E+00    8.1228701519E+00    8.1228701519E+00    2.2794666911E-03   -1.9563961128E-04   -1.7967501832E-04
        3    6.0921526139E+00    2.0307175380E+00    4.0614350759E+00   -6.3833920388E-03    6.1607448269E-04   -6.2525607837E-04
        9    8.1228701519E+00    4.0614350759E+00    6.0921526139E+00    2.4505257261E-03   -2.3636596700E-04   -1.4429985588E-06
        3    6.0921526139E+00    4.0614350759E+00    6.0921526139E+00   -6.3528270234E-03   -5.0274647712E-04   -4.0625974578E-06
        9    8.1228701519E+00    6.0921526139E+00    8.1228701519E+00    2.4584451908E-03    9.8233092393E-06    2.6989467459E-04
        3    6.0921526139E+00    6.0921526139E+00    8.1228701519E+00   -6.3433863314E-03   -4.4557801147E-07    4.8663081761E-04
        9    8.1228701519E+00    8.1228701519E+00    1.0153587690E+01    2.4531558078E-03   -7.3238234351E-04    7.5720658470E-04
        3    4.0614350759E+00    4.0614350759E+00    0.0000000000E+00   -7.0743890835E-03   -5.8276206385E-04   -2.2162608411E-06
        9    6.0921526139E+00    6.0921526139E+00    2.0307175380E+00    4.3968745561E-03    9.6697510144E-07   -1.4455357024E-03
        3    4.0614350759E+00    6.0921526139E+00    2.0307175380E+00   -7.0761616266E-03    2.0433192113E-06    5.6636746274E-04
        9    6.0921526139E+00    8.1228701519E+00    4.0614350759E+00    2.2787806173E-03   -1.9916875575E-04    1.9732978497E-04
        3    4.0614350759E+00    8.1228701519E+00    4.0614350759E+00   -6.9957380880E-03    5.8980260915E-04   -5.9547361087E-04
        9    6.0921526139E+00    1.0153587690E+01    6.0921526139E+00    4.3985714394E-03    1.4292980835E-03   -2.7979969033E-06
        3    6.0921526139E+00    4.0614350759E+00    2.0307175380E+00   -6.3879271920E-03   -6.2145744292E-04    6.2701801712E-04
        9    8.1228701519E+00    6.0921526139E+00    4.0614350759E+00    2.4453952047E-03    6.2793877705E-06   -2.5369748635E-04
        3    6.0921526139E+00    6.0921526139E+00    4.0614350759E+00   -6.3468497199E-03    1.4175481561E-06   -4.7680816853E-04
        9    8.1228701519E+00    8.1228701519E+00    6.0921526139E+00    2.4455034141E-03    2.3025751279E-04    9.6392988493E-07
        3    6.0921526139E+00    8.1228701519E+00    6.0921526139E+00   -6.3430145105E-03    4.9082793721E-04    2.1472212824E-06
        9    8.1228701519E+00    1.0153587690E+01    8.1228701519E+00    2.4479247105E-03    7.4713299211E-04   -7.5732222548E-04
        3    8.1228701519E+00    4.0614350759E+00    4.0614350759E+00   -6.6799653676E-03   -1.2651333528E-04   -1.1617939583E-04
        9    1.0153587690E+01    6.0921526139E+00    6.0921526139E+00    4.0897692362E-03   -6.6913533717E-06    1.1921013395E-05
        3    8.1228701519E+00    6.0921526139E+00    6.0921526139E+00   -6.6616791995E-03    4.6255239809E-07    5.1636293799E-06
        9    1.0153587690E+01    8.1228701519E+00    8.1228701519E+00    2.5751431517E-03   -1.9797966181E-04   -1.9883002939E-04
        3    8.1228701519E+00    8.1228701519E+00    8.1228701519E+00   -6.6749956577E-03    1.3359829236E-04    1.1906999754E-04
        9    1.0153587690E+01    1.0153587690E+01    1.0153587690E+01    2.5826567999E-03    2.1007775831E-04    1.8561441937E-04
