 DIM-GROUP
 3  1
 PRIMVEC
 0.0000000000E+00   6.0921526139E+00   6.0921526139E+00
 6.0921526139E+00   0.0000000000E+00   6.0921526139E+00
 6.0921526139E+00   6.0921526139E+00   0.0000000000E+00
 PRIMCOORD
54 1
        3    0.0000000000E+00    0.0000000000E+00    0.0000000000E+00   -6.6709286884E-03    1.0032004278E-05    7.8052243777E-06
        9    2.0307175380E+00    2.0307175380E+00    2.0307175380E+00    2.2680799047E-03   -1.6553862650E-04    1.2210922904E-04
        3    0.0000000000E+00    2.0307175380E+00    2.0307175380E+00   -6.6757948077E-03    6.0130415478E-04   -4.0783000089E-04
        9    2.0307175380E+00    4.0614350759E+00    4.0614350759E+00    2.2732344382E-03    1.6192840425E-04   -1.2177357921E-04
        3    0.0000000000E+00    4.0614350759E+00    4.0614350759E+00   -6.6785165285E-03   -5.9902125524E-04    4.2240753464E-04
        9    2.0307175380E+00    6.0921526139E+00    6.0921526139E+00    2.6929379531E-03    1.4689746340E-05    9.5851049209E-06
        3    2.0307175380E+00    0.0000000000E+00    2.0307175380E+00   -6.1328077243E-03    2.8800123490E-06   -4.3867249160E-04
        9    4.0614350759E+00    2.0307175380E+00    4.0614350759E+00    2.6535439683E-03   -1.9554024829E-04   -1.3364669771E-04
        3    2.0307175380E+00    2.0307175380E+00    4.0614350759E+00   -6.0668679939E-03    5.7902131709E-04    2.7614045644E-04
        9    4.0614350759E+00    4.0614350759E+00    6.0921526139E+00    3.1839558989E-03    8.0088909434E-04    1.6228792851E-06
        3    2.0307175380E+00    4.0614350759E+00    6.0921526139E+00   -6.5738790042E-03   -1.9012672851E-04    5.2018476374E-06
        9    4.0614350759E+00    6.0921526139E+00    8.1228701519E+00    3.8581338259E-03   -8.5572798988E-07   -1.8904221272E-03
        3    4.0614350759E+00    0.0000000000E+00    4.0614350759E+00   -7.1715995770E-03   -7.3286837156E-06    3.9623730796E-04
        9    6.0921526139E+00    2.0307175380E+00    6.0921526139E+00    2.4356395532E-03    3.3281070693E-04    1.6240925377E-05
        3    4.0614350759E+00    2.0307175380E+00    6.0921526139E+00   -6.7918003818E-03    1.7759093301E-04    4.8791125052E-06
        9    6.0921526139E+00    4.0614350759E+00    8.1228701519E+00    2.4328276368E-03    1.4704422113E-03   -1.8807893478E-03
        3    4.0614350759E+00    4.0614350759E+00    8.1228701519E+00   -7.2987311309E-03   -5.7962232492E-04   -2.8164658803E-04
        9    6.0921526139E+00    6.0921526139E+00    1.0153587690E+01    2.4581984726E-03   -1.0531205677E-05   -1.5376339978E-03
        3    2.0307175380E+00    2.0307175380E+00    0.0000000000E+00   -6.5708273753E-03    2.0726234028E-04    5.3576222229E-06
        9    4.0614350759E+00    4.0614350759E+00    2.0307175380E+00    2.6473801518E-03    1.7839723330E-04    1.4634186385E-04
        3    2.0307175380E+00    4.0614350759E+00    2.0307175380E+00   -6.0745757737E-03   -5.7846003955E-04   -2.7456808017E-04
        9    4.0614350759E+00    6.0921526139E+00    4.0614350759E+00    3.8616123109E-03   -1.3066982801E-05    1.8741807503E-03
        3    2.0307175380E+00    6.0921526139E+00    4.0614350759E+00   -6.1285108140E-03   -4.1703751274E-06    4.3652503640E-04
        9    4.0614350759E+00    8.1228701519E+00    6.0921526139E+00    3.1791660545E-03   -7.7575768054E-04    6.4308469821E-06
        3    4.0614350759E+00    2.0307175380E+00    2.0307175380E+00   -7.2961435146E-03    5.6877504189E-04   -2.8019883129E-04
        9    6.0921526139E+00    4.0614350759E+00    4.0614350759E+00    2.4270726930E-03    1.4541277890E-03    1.8697887161E-03
        3    4.0614350759E+00    4.0614350759E+00    4.0614350759E+00   -7.2943692616E-03   -5.8157183966E-04    2.8398269866E-04
        9    6.0921526139E+00    6.0921526139E+00    6.0921526139E+00    2.5151425944E-03    9.5977005230E-06   -1.6342149256E-05
        3    4.0614350759E+00    6.0921526139E+00    6.0921526139E+00   -1.6976334997E-02    4.6822680529E-06   -2.8517064223E-06
        9    6.0921526139E+00    8.1228701519E+00    8.1228701519E+00    2.4285836337E-03   -1.4796689644E-03   -1.8838396966E-03
        3    6.0921526139E+00    2.0307175380E+00    4.0614350759E+00   -6.6754401798E-03    5.8978917723E-04    4.1539414403E-04
        9    8.1228701519E+00    4.0614350759E+00    6.0921526139E+00    1.6701084982E-03    7.9599906496E-04   -1.3700807352E-05
        3    6.0921526139E+00    4.0614350759E+00    6.0921526139E+00   -6.6949203375E-03   -1.0095349703E-02   -9.0024350507E-06
        9    8.1228701519E+00    6.0921526139E+00    8.1228701519E+00    9.8213504747E-04   -3.2083760725E-06   -1.8887951177E-03
        3    6.0921526139E+00    6.0921526139E+00    8.1228701519E+00   -6.7910605811E-03   -2.2462356903E-06    1.7046060382E-02
        9    8.1228701519E+00    8.1228701519E+00    1.0153587690E+01    2.2723925363E-03   -1.7616300324E-04   -1.2567138707E-04
        3    4.0614350759E+00    4.0614350759E+00    0.0000000000E+00   -6.7966397824E-03   -1.7037453265E-04    1.8019980384E-07
        9    6.0921526139E+00    6.0921526139E+00    2.0307175380E+00    2.4704436209E-03    7.7518493292E-06    1.5464190847E-03
        3    4.0614350759E+00    6.0921526139E+00    2.0307175380E+00   -7.1742152080E-03   -4.0224417658E-06   -3.9559195019E-04
        9    6.0921526139E+00    8.1228701519E+00    4.0614350759E+00    2.4252972400E-03   -1.4697582867E-03    1.8894256712E-03
        3    4.0614350759E+00    8.1228701519E+00    4.0614350759E+00   -7.2910511743E-03    5.6719059137E-04    2.8610820258E-04
        9    6.0921526139E+00    1.0153587690E+01    6.0921526139E+00    2.4415485289E-03   -3.0119595678E-04    4.8460628548E-06
        3    6.0921526139E+00    4.0614350759E+00    2.0307175380E+00   -6.6799420032E-03   -6.0549852644E-04   -4.1506300148E-04
        9    8.1228701519E+00    6.0921526139E+00    4.0614350759E+00    9.8355272091E-04   -9.9898626118E-06    1.8738468194E-03
        3    6.0921526139E+00    6.0921526139E+00    4.0614350759E+00   -6.7896936196E-03   -7.9158639058E-06   -1.7059419595E-02
        9    8.1228701519E+00    8.1228701519E+00    6.0921526139E+00    1.6694626497E-03   -7.7944918881E-04   -1.4320547869E-06
        3    6.0921526139E+00    8.1228701519E+00    6.0921526139E+00   -6.6923896159E-03    1.0103724043E-02    4.1237691468E-06
        9    8.1228701519E+00    1.0153587690E+01    8.1228701519E+00    2.2670352881E-03    1.5584024592E-04    1.1208739789E-04
        3    8.1228701519E+00    4.0614350759E+00    4.0614350759E+00   -6.0709133561E-03   -5.8724257523E-04    2.6531402395E-04
        9    1.0153587690E+01    6.0921526139E+00    6.0921526139E+00    2.1862001294E-03    1.5781723505E-05   -1.5686224129E-06
        3    8.1228701519E+00    6.0921526139E+00    6.0921526139E+00    3.5209907815E-03    4.0834752333E-06   -1.0221115195E-05
        9    1.0153587690E+01    8.1228701519E+00    8.1228701519E+00    2.6497476339E-03   -1.9132489273E-04    1.5754754360E-04
        3    8.1228701519E+00    8.1228701519E+00    8.1228701519E+00   -6.0708863355E-03    5.7003706515E-04   -2.7726193288E-04
        9    1.0153587690E+01    1.0153587690E+01    1.0153587690E+01    2.6517619531E-03    1.8350377948E-04   -1.3609578899E-04
