 DIM-GROUP
 3  1
 PRIMVEC
 0.0000000000E+00   6.0921526139E+00   6.0921526139E+00
 6.0921526139E+00   0.0000000000E+00   6.0921526139E+00
 6.0921526139E+00   6.0921526139E+00   0.0000000000E+00
 PRIMCOORD
54 1
        3    0.0000000000E+00    0.0000000000E+00    0.0000000000E+00   -7.1914134414E-03    4.1366551500E-04    1.3780578023E-06
        9    2.0307175380E+00    2.0307175380E+00    2.0307175380E+00    2.4424468780E-03    1.8294457188E-05    3.1478841645E-04
        3    0.0000000000E+00    2.0307175380E+00    2.0307175380E+00   -6.8109697487E-03   -2.8539429264E-06    1.7000059411E-04
        9    2.0307175380E+00    4.0614350759E+00    4.0614350759E+00    2.4289712513E-03   -1.8947922004E-03    1.4849000364E-03
        3    0.0000000000E+00    4.0614350759E+00    4.0614350759E+00   -7.2871898889E-03   -2.7952556059E-04   -5.6787822687E-04
        9    2.0307175380E+00    6.0921526139E+00    6.0921526139E+00    2.4687072045E-03   -1.5589513822E-03    4.7326886011E-06
        3    2.0307175380E+00    0.0000000000E+00    2.0307175380E+00   -6.6783350047E-03    4.3075889550E-04    6.0203134865E-04
        9    4.0614350759E+00    2.0307175380E+00    4.0614350759E+00    1.6799769761E-03    4.7943313862E-06    7.7020338941E-04
        3    2.0307175380E+00    2.0307175380E+00    4.0614350759E+00   -6.6938433887E-03   -7.6691293009E-06   -1.0106489046E-02
        9    4.0614350759E+00    4.0614350759E+00    6.0921526139E+00    9.9801684349E-04   -1.8961480176E-03    3.8105178618E-06
        3    2.0307175380E+00    4.0614350759E+00    6.0921526139E+00   -6.7914532357E-03    1.7091808377E-02    8.1709494777E-06
        9    4.0614350759E+00    6.0921526139E+00    8.1228701519E+00    2.2595855762E-03   -1.3302281562E-04   -1.6233399966E-04
        3    4.0614350759E+00    0.0000000000E+00    4.0614350759E+00   -6.0829368459E-03    2.5605033055E-04   -5.7842326999E-04
        9    6.0921526139E+00    2.0307175380E+00    6.0921526139E+00    2.2140893834E-03    1.1520716094E-05   -1.0316474912E-05
        3    4.0614350759E+00    2.0307175380E+00    6.0921526139E+00    3.4885021443E-03   -6.3534973494E-06   -1.3122159848E-05
        9    6.0921526139E+00    4.0614350759E+00    8.1228701519E+00    2.6598544974E-03    1.4532824193E-04   -1.7880551930E-04
        3    4.0614350759E+00    4.0614350759E+00    8.1228701519E+00   -6.0799413178E-03   -2.7779412780E-04    5.7671259835E-04
        9    6.0921526139E+00    6.0921526139E+00    1.0153587690E+01    2.6537291272E-03   -1.4591861291E-04    1.9955588919E-04
        3    2.0307175380E+00    2.0307175380E+00    0.0000000000E+00   -6.6705616462E-03    1.3708170383E-05   -3.3773782769E-06
        9    4.0614350759E+00    4.0614350759E+00    2.0307175380E+00    2.2615821589E-03    1.2397657930E-04   -1.5791888940E-04
        3    2.0307175380E+00    4.0614350759E+00    2.0307175380E+00   -6.6773579173E-03   -4.3330121139E-04    6.0880499329E-04
        9    4.0614350759E+00    6.0921526139E+00    4.0614350759E+00    2.2587072427E-03   -1.2310370120E-04    1.7727665550E-04
        3    2.0307175380E+00    6.0921526139E+00    4.0614350759E+00   -6.6782562764E-03    4.4313281507E-04   -5.9048354987E-04
        9    4.0614350759E+00    8.1228701519E+00    6.0921526139E+00    2.6687837373E-03    1.2812410644E-05   -1.3603465814E-05
        3    4.0614350759E+00    2.0307175380E+00    2.0307175380E+00   -6.5577338112E-03    5.3918498191E-06    1.9688916692E-04
        9    6.0921526139E+00    4.0614350759E+00    4.0614350759E+00    2.6571805737E-03    1.4743317797E-04    1.9617827073E-04
        3    4.0614350759E+00    4.0614350759E+00    4.0614350759E+00   -6.0794190575E-03   -2.6267626146E-04   -5.7020723251E-04
        9    6.0921526139E+00    6.0921526139E+00    6.0921526139E+00    3.8479229729E-03    1.8989519382E-03    8.4961291493E-06
        3    4.0614350759E+00    6.0921526139E+00    6.0921526139E+00   -6.1142425368E-03    4.6126329588E-04    5.3697621944E-06
        9    6.0921526139E+00    8.1228701519E+00    8.1228701519E+00    3.1706745261E-03   -6.9363769861E-06   -8.0059616924E-04
        3    6.0921526139E+00    2.0307175380E+00    4.0614350759E+00   -6.8122648914E-03    5.7520867356E-07   -1.8442645101E-04
        9    8.1228701519E+00    4.0614350759E+00    6.0921526139E+00    2.4619148716E-03    1.5861061252E-03    1.7699427064E-05
        3    6.0921526139E+00    4.0614350759E+00    6.0921526139E+00   -7.1879315547E-03   -4.1318257610E-04    5.9372048945E-06
        9    8.1228701519E+00    6.0921526139E+00    8.1228701519E+00    2.4273161922E-03    1.9033301921E-03   -1.4589291795E-03
        3    6.0921526139E+00    6.0921526139E+00    8.1228701519E+00   -7.2882818635E-03    2.6974635332E-04    5.7782623896E-04
        9    8.1228701519E+00    8.1228701519E+00    1.0153587690E+01    2.4362900535E-03    3.0068289843E-06   -3.3282691678E-04
        3    4.0614350759E+00    4.0614350759E+00    0.0000000000E+00   -6.1116655562E-03   -4.5309763413E-04    4.9330625716E-06
        9    6.0921526139E+00    6.0921526139E+00    2.0307175380E+00    2.6600623486E-03   -1.5715115667E-04   -1.8622707356E-04
        3    4.0614350759E+00    6.0921526139E+00    2.0307175380E+00   -6.0794512234E-03    2.6094953130E-04    5.8163891401E-04
        9    6.0921526139E+00    8.1228701519E+00    4.0614350759E+00    3.1682710247E-03   -1.8145470636E-05    7.6858911185E-04
        3    4.0614350759E+00    8.1228701519E+00    4.0614350759E+00   -6.5562913391E-03    3.2342069847E-07   -2.0724032798E-04
        9    6.0921526139E+00    1.0153587690E+01    6.0921526139E+00    3.8376374381E-03   -1.8844146908E-03    8.3003612435E-06
        3    6.0921526139E+00    4.0614350759E+00    2.0307175380E+00   -7.2849019765E-03   -2.7974880386E-04    5.7585774894E-04
        9    8.1228701519E+00    6.0921526139E+00    4.0614350759E+00    2.4203180038E-03    1.8878085127E-03    1.4690448149E-03
        3    6.0921526139E+00    6.0921526139E+00    4.0614350759E+00   -7.2861795315E-03    2.7126317396E-04   -5.6812545322E-04
        9    8.1228701519E+00    8.1228701519E+00    6.0921526139E+00    2.5198001276E-03   -1.0624162520E-06   -1.9064674098E-05
        3    6.0921526139E+00    8.1228701519E+00    6.0921526139E+00   -1.6941218178E-02    4.2201667128E-06   -6.6536001575E-06
        9    8.1228701519E+00    1.0153587690E+01    8.1228701519E+00    2.4357137789E-03   -1.9076983536E-03   -1.4666310851E-03
        3    8.1228701519E+00    4.0614350759E+00    4.0614350759E+00   -6.6768627212E-03   -4.3965985937E-04   -5.9925946852E-04
        9    1.0153587690E+01    6.0921526139E+00    6.0921526139E+00    1.0050169501E-03    1.8760597881E-03   -3.8701498683E-06
        3    8.1228701519E+00    6.0921526139E+00    6.0921526139E+00   -6.7852177209E-03   -1.7095384392E-02   -4.9849124883E-06
        9    1.0153587690E+01    8.1228701519E+00    8.1228701519E+00    1.6858968167E-03    3.1425984339E-06   -8.0271267227E-04
        3    8.1228701519E+00    8.1228701519E+00    8.1228701519E+00   -6.6924087065E-03    1.6461953895E-06    1.0088457909E-02
        9    1.0153587690E+01    1.0153587690E+01    1.0153587690E+01    2.2567204356E-03    1.1455012384E-04    1.6904121363E-04
